
Circuit: ***** spice netlist for cell 'lab1' *****

Error on line 19 : .ac dec 200 0 1e7
Frequency of 0 is invalid for AC start
binary raw file
Reducing trtol to 1 for xspice 'A' devices
Doing analysis at TEMP = 27.000000 and TNOM = 27.000000

No. of Data Columns : 28  

No. of Data Rows : 1401

Total elapsed time: 0.094 seconds.

Total DRAM available = 16256.566406 MB.
DRAM currently available = 12230.085938 MB.
Total ngspice program size = 14.214844 MB.

