
Circuit: ***** spice netlist for cell 'lab1' *****

Error on line 19 : .ac dec 200 0 1e6
Frequency of 0 is invalid for AC start
binary raw file
Reducing trtol to 1 for xspice 'A' devices
Doing analysis at TEMP = 27.000000 and TNOM = 27.000000

No. of Data Columns : 28  

No. of Data Rows : 1201

Total elapsed time: 0.125 seconds.

Total DRAM available = 16256.566406 MB.
DRAM currently available = 10956.851563 MB.
Total ngspice program size = 14.449219 MB.

